Second file content.
New line.
This line is added remotely.
This line is added locally
